Version 4
SHEET 1 1256 2284
WIRE -880 -1616 -1040 -1616
WIRE -864 -1616 -880 -1616
WIRE -1392 -1472 -1440 -1472
WIRE -1248 -1472 -1264 -1472
WIRE -1040 -1472 -1072 -1472
WIRE -896 -1472 -912 -1472
WIRE -672 -1472 -720 -1472
WIRE -528 -1472 -544 -1472
WIRE 48 -1200 48 -1232
WIRE -1248 -1184 -1248 -1472
WIRE -320 -1184 -1248 -1184
WIRE -896 -1152 -896 -1472
WIRE -320 -1152 -896 -1152
WIRE 32 -1152 -192 -1152
WIRE 224 -1152 128 -1152
WIRE 272 -1152 224 -1152
WIRE -528 -1120 -528 -1472
WIRE -320 -1120 -528 -1120
WIRE 48 -976 48 -1008
WIRE -1248 -960 -1248 -1184
WIRE -320 -960 -1248 -960
WIRE -896 -928 -896 -1152
WIRE -320 -928 -896 -928
WIRE 32 -928 -192 -928
WIRE 208 -928 128 -928
WIRE 384 -928 208 -928
WIRE -720 -896 -720 -1472
WIRE -320 -896 -720 -896
WIRE 48 -752 48 -768
WIRE -1248 -736 -1248 -960
WIRE -320 -736 -1248 -736
WIRE -1072 -704 -1072 -1472
WIRE -320 -704 -1072 -704
WIRE 32 -704 -192 -704
WIRE 224 -704 128 -704
WIRE 512 -704 224 -704
WIRE -528 -672 -528 -1120
WIRE -320 -672 -528 -672
WIRE 48 -528 48 -560
WIRE -1248 -512 -1248 -736
WIRE -320 -512 -1248 -512
WIRE -1072 -480 -1072 -704
WIRE -320 -480 -1072 -480
WIRE 32 -480 -192 -480
WIRE 224 -480 128 -480
WIRE 624 -480 224 -480
WIRE -720 -448 -720 -896
WIRE -320 -448 -720 -448
WIRE 48 -304 48 -352
WIRE -1440 -288 -1440 -1472
WIRE -320 -288 -1440 -288
WIRE -896 -256 -896 -928
WIRE -320 -256 -896 -256
WIRE 32 -256 -192 -256
WIRE 224 -256 128 -256
WIRE 752 -256 224 -256
WIRE -528 -224 -528 -672
WIRE -320 -224 -528 -224
WIRE 48 -80 48 -112
WIRE -1440 -64 -1440 -288
WIRE -320 -64 -1440 -64
WIRE -896 -32 -896 -256
WIRE -320 -32 -896 -32
WIRE 32 -32 -192 -32
WIRE 224 -32 128 -32
WIRE 880 -32 224 -32
WIRE -720 0 -720 -448
WIRE -320 0 -720 0
WIRE 48 144 48 112
WIRE -1440 160 -1440 -64
WIRE -320 160 -1440 160
WIRE -1072 192 -1072 -480
WIRE -320 192 -1072 192
WIRE 32 192 -192 192
WIRE 224 192 128 192
WIRE 1008 192 224 192
WIRE -528 224 -528 -224
WIRE -320 224 -528 224
WIRE 48 384 48 352
WIRE -1440 400 -1440 160
WIRE -320 400 -1440 400
WIRE -1072 432 -1072 192
WIRE -320 432 -1072 432
WIRE 32 432 -192 432
WIRE 224 432 128 432
WIRE 1168 432 224 432
WIRE -720 464 -720 0
WIRE -320 464 -720 464
WIRE 1008 464 1008 192
WIRE 1136 464 1008 464
WIRE 880 496 880 -32
WIRE 1104 496 880 496
WIRE -1440 512 -1440 400
WIRE -1248 512 -1248 -512
WIRE -1072 512 -1072 432
WIRE -896 512 -896 -32
WIRE -720 512 -720 464
WIRE -528 512 -528 224
WIRE 752 528 752 -256
WIRE 1072 528 752 528
WIRE 624 560 624 -480
WIRE 1040 560 624 560
WIRE 512 592 512 -704
WIRE 1008 592 512 592
WIRE 384 624 384 -928
WIRE 976 624 384 624
WIRE 272 656 272 -1152
WIRE 944 656 272 656
WIRE -672 704 -992 704
WIRE 944 704 944 656
WIRE 976 704 976 624
WIRE 1008 704 1008 592
WIRE 1040 704 1040 560
WIRE 1072 704 1072 528
WIRE 1104 704 1104 496
WIRE 1136 704 1136 464
WIRE 1168 704 1168 432
FLAG -1440 -1472 InA
IOPIN -1440 -1472 In
FLAG -1072 -1472 InB
IOPIN -1072 -1472 In
FLAG -720 -1472 InC
IOPIN -720 -1472 In
FLAG -1040 -1616 VDD
IOPIN -1040 -1616 In
FLAG -880 -1616 VDD
FLAG -320 -1216 VDD
FLAG -320 -992 VDD
FLAG -320 -768 VDD
FLAG -320 -544 VDD
FLAG -320 -320 VDD
FLAG -320 -96 VDD
FLAG -320 128 VDD
FLAG -320 368 VDD
FLAG -992 704 GND
IOPIN -992 704 In
FLAG -672 704 G
FLAG -320 496 G
FLAG -320 256 G
FLAG -320 32 G
FLAG -320 -192 G
FLAG -320 -416 G
FLAG -320 -640 G
FLAG -320 -864 G
FLAG -320 -1088 G
FLAG 1056 832 OUT
IOPIN 1056 832 Out
FLAG 48 -1232 S1
IOPIN 48 -1232 In
FLAG 80 -1152 G
FLAG 48 -1008 S2
IOPIN 48 -1008 In
FLAG 80 -928 G
FLAG 208 -848 G
FLAG 48 -768 S3
IOPIN 48 -768 In
FLAG 80 -704 G
FLAG 224 -624 G
FLAG 48 -560 S4
IOPIN 48 -560 In
FLAG 80 -480 G
FLAG 224 -400 G
FLAG 48 -352 S5
IOPIN 48 -352 In
FLAG 80 -256 G
FLAG 224 -176 G
FLAG 48 -112 S6
IOPIN 48 -112 In
FLAG 80 -32 G
FLAG 224 48 G
FLAG 48 112 S7
IOPIN 48 112 In
FLAG 80 192 G
FLAG 224 272 G
FLAG 48 352 S8
IOPIN 48 352 In
FLAG 80 432 G
FLAG 224 512 G
FLAG 224 -1072 G
FLAG -1392 -1440 G
FLAG -1040 -1440 G
FLAG -672 -1440 G
FLAG -1392 -1504 VDD
FLAG -1040 -1504 VDD
FLAG -672 -1504 VDD
FLAG 912 704 G
FLAG 1200 704 VDD
SYMBOL NOT -1328 -1472 R0
SYMATTR InstName X1
SYMBOL NOT -976 -1472 R0
SYMATTR InstName X2
SYMBOL NOT -608 -1472 R0
SYMATTR InstName X3
SYMBOL 3_AND -256 -1152 R0
SYMATTR InstName AND_1
SYMBOL 3_AND -256 -928 R0
SYMATTR InstName AND_2
SYMBOL 3_AND -256 -704 R0
SYMATTR InstName AND_3
SYMBOL 3_AND -256 -480 R0
SYMATTR InstName AND_4
SYMBOL 3_AND -256 -256 R0
SYMATTR InstName AND_5
SYMBOL 3_AND -256 -32 R0
SYMATTR InstName AND_6
SYMBOL 3_AND -256 192 R0
SYMATTR InstName AND_7
SYMBOL 3_AND -256 432 R0
SYMATTR InstName AND_8
SYMBOL nmos4 128 -1200 R90
WINDOW 0 -69 -28 Left 2
WINDOW 3 -84 113 Left 2
SYMATTR InstName M1
SYMBOL nmos4 128 -976 R90
WINDOW 0 -15 -19 Left 2
WINDOW 3 -40 110 Left 2
SYMATTR InstName M2
SYMBOL nmos4 128 -752 R90
WINDOW 0 -15 -19 Left 2
WINDOW 3 -40 110 Left 2
SYMATTR InstName M3
SYMBOL nmos4 128 -528 R90
WINDOW 0 -15 -19 Left 2
WINDOW 3 -40 110 Left 2
SYMATTR InstName M4
SYMBOL nmos4 128 -304 R90
WINDOW 0 -15 -19 Left 2
WINDOW 3 -40 110 Left 2
SYMATTR InstName M5
SYMBOL nmos4 128 -80 R90
WINDOW 0 -15 -19 Left 2
WINDOW 3 -40 110 Left 2
SYMATTR InstName M6
SYMBOL nmos4 128 144 R90
WINDOW 0 -15 -19 Left 2
WINDOW 3 -40 110 Left 2
SYMATTR InstName M7
SYMBOL nmos4 128 384 R90
WINDOW 0 -15 -19 Left 2
WINDOW 3 -40 110 Left 2
SYMATTR InstName M8
SYMBOL 8_OR 1056 768 R90
SYMATTR InstName OR_plane
SYMBOL res 192 -944 R0
SYMATTR InstName R1
SYMATTR Value 500000k
SYMBOL res 208 -720 R0
SYMATTR InstName R2
SYMATTR Value 500000k
SYMBOL res 208 -496 R0
SYMATTR InstName R3
SYMATTR Value 500000k
SYMBOL res 208 -272 R0
SYMATTR InstName R4
SYMATTR Value 500000k
SYMBOL res 208 -48 R0
SYMATTR InstName R5
SYMATTR Value 500000k
SYMBOL res 208 176 R0
SYMATTR InstName R6
SYMATTR Value 500000k
SYMBOL res 208 416 R0
SYMATTR InstName R7
SYMATTR Value 500000k
SYMBOL res 208 -1168 R0
SYMATTR InstName R8
SYMATTR Value 500000k
TEXT -1440 -1296 Left 2 ;A
TEXT -1248 -1296 Left 2 ;A'
TEXT -1072 -1296 Left 2 ;B
TEXT -896 -1296 Left 2 ;B'
TEXT -720 -1296 Left 2 ;C
TEXT -528 -1296 Left 2 ;C'
TEXT -144 -1168 Left 2 ;A'B'C'
TEXT -136 -944 Left 2 ;A'B'C
TEXT -136 -720 Left 2 ;A'BC'
TEXT -128 -496 Left 2 ;A'BC
TEXT -120 -272 Left 2 ;AB'C'
TEXT -112 -48 Left 2 ;AB'C
TEXT -112 176 Left 2 ;ABC'
TEXT -1440 512 Left 2 ;A
TEXT -1248 512 Left 2 ;A'
TEXT -1072 512 Left 2 ;B
TEXT -896 512 Left 2 ;B'
TEXT -720 512 Left 2 ;C
TEXT -528 512 Left 2 ;C'
TEXT -112 416 Left 2 ;ABC
