Version 4
SHEET 1 880 680
WIRE 288 64 272 64
WIRE 400 64 368 64
WIRE 400 80 400 64
WIRE 272 112 272 64
WIRE 272 112 240 112
WIRE -96 144 -128 144
WIRE 272 144 240 144
WIRE -128 160 -128 144
WIRE 272 176 240 176
WIRE 272 192 272 176
FLAG 272 192 0
FLAG -128 160 0
FLAG 400 80 0
FLAG 272 144 OUT
FLAG 128 144 IN
FLAG -16 144 IN
SYMBOL not 176 144 R0
SYMATTR InstName X1
SYMBOL voltage 0 144 R90
WINDOW 0 -32 56 VBottom 2
WINDOW 3 32 56 VTop 2
WINDOW 123 0 0 Left 0
WINDOW 39 0 0 Left 0
SYMATTR InstName IN
SYMATTR Value PULSE(0 5 1p 1p 1p 0.5m 1m)
SYMBOL voltage 272 64 M90
WINDOW 0 -32 56 VBottom 2
WINDOW 3 32 56 VTop 2
WINDOW 123 0 0 Left 0
WINDOW 39 0 0 Left 0
SYMATTR InstName VDD
SYMATTR Value 5
