Version 4
SHEET 1 880 680
WIRE 96 16 -80 16
WIRE 96 112 96 16
WIRE 160 112 96 112
WIRE 288 112 288 64
WIRE 288 112 256 112
WIRE 160 144 -80 144
WIRE 320 144 256 144
WIRE 160 176 96 176
WIRE 288 176 256 176
WIRE 288 192 288 176
WIRE 96 272 96 176
WIRE 96 272 -80 272
FLAG 288 192 0
FLAG -160 16 0
FLAG 368 64 0
FLAG 320 144 Output
FLAG -160 144 0
FLAG -160 272 0
SYMBOL PLD 208 144 R0
SYMATTR InstName PLD
SYMBOL voltage 272 64 R270
WINDOW 0 32 56 VTop 2
WINDOW 3 -32 56 VBottom 2
WINDOW 123 0 0 Left 0
WINDOW 39 0 0 Left 0
SYMATTR InstName VDD
SYMATTR Value 5
SYMBOL voltage -64 16 M270
WINDOW 0 32 56 VTop 2
WINDOW 3 -32 56 VBottom 2
WINDOW 123 0 0 Left 0
WINDOW 39 0 0 Left 0
SYMATTR InstName S
SYMATTR Value PULSE(0 5 1p 1p 1p 1.5m 3m)
SYMBOL voltage -64 144 M270
WINDOW 0 32 56 VTop 2
WINDOW 3 -32 56 VBottom 2
WINDOW 123 0 0 Left 0
WINDOW 39 0 0 Left 0
SYMATTR InstName A
SYMATTR Value PULSE(0 5 1p 1p 1p 0.5m 1m)
SYMBOL voltage -64 272 M270
WINDOW 0 32 56 VTop 2
WINDOW 3 -32 56 VBottom 2
WINDOW 123 0 0 Left 0
WINDOW 39 0 0 Left 0
SYMATTR InstName B
SYMATTR Value PULSE(0 5 1p 1p 1p 1m 2m)
TEXT -296 338 Left 2 !.tran 10m
