Version 4
SHEET 1 880 680
WIRE 320 -16 256 -16
WIRE 144 160 96 160
WIRE 352 176 272 176
WIRE 544 176 480 176
WIRE 144 192 96 192
WIRE 320 368 256 368
FLAG 544 176 OUT
IOPIN 544 176 Out
FLAG 96 160 InA
IOPIN 96 160 In
FLAG 96 192 InB
IOPIN 96 192 In
FLAG 256 -16 VDD
IOPIN 256 -16 In
FLAG 256 368 GND
IOPIN 256 368 In
FLAG 320 -16 VDD
FLAG 144 128 VDD
FLAG 352 144 VDD
FLAG 320 368 G
FLAG 144 224 G
FLAG 352 208 G
SYMBOL NOR_2 208 176 R0
SYMATTR InstName NOR_1
SYMBOL NOT 416 176 R0
SYMATTR InstName NOT_1
