Version 4
SHEET 1 880 680
WIRE 368 0 336 0
WIRE 304 160 224 160
WIRE 304 240 304 160
WIRE 368 240 304 240
WIRE 368 272 304 272
WIRE 304 352 304 272
WIRE 304 352 224 352
WIRE 384 464 336 464
FLAG 496 256 OUT
IOPIN 496 256 Out
FLAG 96 144 InA
IOPIN 96 144 In
FLAG 96 176 InB
IOPIN 96 176 In
FLAG 96 352 InC
IOPIN 96 352 In
FLAG 336 0 VDD
IOPIN 336 0 In
FLAG 336 464 GND
IOPIN 336 464 In
FLAG 368 0 VDD
FLAG 96 112 VDD
FLAG 96 320 VDD
FLAG 368 208 VDD
FLAG 384 464 G
FLAG 96 384 G
FLAG 96 208 G
FLAG 368 304 G
SYMBOL NOR_2 160 160 R0
SYMATTR InstName NOR_1
SYMBOL NOT 160 352 R0
SYMATTR InstName X1
SYMBOL NAND 432 256 R0
SYMATTR InstName X2
