Version 4
SHEET 1 880 680
WIRE 176 112 48 112
WIRE 512 176 448 176
WIRE 448 192 448 176
WIRE 448 192 352 192
FLAG 48 192 0
FLAG 512 256 0
SYMBOL voltage 48 96 R0
SYMATTR InstName V1
SYMATTR Value 5
SYMBOL voltage 512 160 R0
SYMATTR InstName V2
SYMATTR Value 5
SYMBOL SWITCH 256 208 R0
SYMATTR InstName X1
TEXT 14 334 Left 2 !.tran 1s
