Version 4
SHEET 1 1620 864
WIRE 704 0 704 -32
WIRE 128 144 96 144
WIRE 416 176 352 176
WIRE 624 176 544 176
WIRE 128 224 96 224
WIRE 624 272 624 176
WIRE 704 272 624 272
WIRE 896 288 832 288
WIRE 1104 288 1024 288
WIRE 704 304 96 304
WIRE 1104 384 1104 288
WIRE 1184 384 1104 384
WIRE 1392 400 1312 400
WIRE 1184 416 1104 416
WIRE 416 512 352 512
WIRE 1104 512 1104 416
WIRE 1104 512 544 512
WIRE 752 752 752 688
FLAG 96 144 InA
IOPIN 96 144 In
FLAG 96 224 InB
IOPIN 96 224 In
FLAG 96 304 S
IOPIN 96 304 In
FLAG 752 752 GND
IOPIN 752 752 In
FLAG 704 -32 VDD
IOPIN 704 -32 In
FLAG 224 160 InA
FLAG 224 496 InA
FLAG 224 192 InB
FLAG 224 528 InB
FLAG 128 224 InB
FLAG 128 144 InA
FLAG 704 0 VDD
FLAG 224 128 VDD
FLAG 416 144 VDD
FLAG 704 240 VDD
FLAG 896 256 VDD
FLAG 1184 352 VDD
FLAG 1392 368 VDD
FLAG 416 480 VDD
FLAG 224 464 VDD
FLAG 752 688 0
FLAG 224 224 0
FLAG 416 208 0
FLAG 704 336 0
FLAG 896 320 0
FLAG 1184 448 0
FLAG 1392 432 0
FLAG 416 544 0
FLAG 224 560 0
FLAG 1520 400 Out
IOPIN 1520 400 Out
SYMBOL NAND 288 176 R0
SYMATTR InstName NAND_1
SYMBOL NOT 480 176 R0
SYMATTR InstName NOT_1
SYMBOL NOR_2 288 512 R0
SYMATTR InstName NOR_1
SYMBOL NOT 480 512 R0
SYMATTR InstName NOT_2
SYMBOL NOR_2 768 288 R0
SYMATTR InstName NOR_2
SYMBOL NOT 960 288 R0
SYMATTR InstName NOT_3
SYMBOL NAND 1248 400 R0
SYMATTR InstName NAND_2
SYMBOL NOT 1456 400 R0
SYMATTR InstName NOT_4
TEXT 560 160 Left 2 ;(A.B)''
TEXT 576 496 Left 2 ;(A+B)''
TEXT 1048 256 Left 2 ;(S+(A.B)'')''
