Version 4
SHEET 1 880 680
WIRE 96 -16 48 -16
WIRE 96 112 96 -16
WIRE 112 112 96 112
WIRE 64 144 -64 144
WIRE 112 144 64 144
WIRE -64 160 -64 144
WIRE 336 160 240 160
WIRE 64 176 64 144
WIRE 112 176 64 176
WIRE 112 208 80 208
WIRE 80 272 80 208
FLAG 80 272 0
FLAG 48 64 0
FLAG 336 224 0
FLAG -64 160 0
SYMBOL NOR 176 160 R0
SYMATTR InstName X1
SYMBOL voltage 48 -32 R0
WINDOW 123 0 0 Left 0
WINDOW 39 0 0 Left 0
SYMATTR InstName V1
SYMATTR Value 5
SYMBOL LED 320 160 R0
SYMATTR InstName D1
