Version 4
SHEET 1 880 680
WIRE 384 160 304 160
FLAG -176 -32 0
FLAG 176 352 0
FLAG -176 -112 V
FLAG 176 -32 V
FLAG -176 128 0
FLAG -176 48 A
FLAG -176 304 0
FLAG -176 224 B
FLAG -176 464 0
FLAG -176 384 C
FLAG 384 160 OUT
IOPIN 384 160 Out
FLAG 176 288 0
FLAG 176 256 0
FLAG 176 224 0
FLAG 176 192 0
FLAG 176 160 0
FLAG 176 128 0
FLAG 176 96 0
FLAG 176 320 V
FLAG 176 0 A
FLAG 176 32 B
FLAG 176 64 C
SYMBOL voltage -176 -128 R0
SYMATTR InstName V1
SYMATTR Value 5
SYMBOL voltage -176 32 R0
WINDOW 3 -252 128 Left 2
WINDOW 123 0 0 Left 0
WINDOW 39 0 0 Left 0
SYMATTR Value PULSE(0 5 1p 1p 1p 0.5m 1m)
SYMATTR InstName V2
SYMBOL voltage -176 208 R0
WINDOW 3 -252 128 Left 2
WINDOW 123 0 0 Left 0
WINDOW 39 0 0 Left 0
SYMATTR Value PULSE(0 5 1p 1p 1p 1m 2m)
SYMATTR InstName V3
SYMBOL voltage -176 368 R0
WINDOW 3 -252 128 Left 2
WINDOW 123 0 0 Left 0
WINDOW 39 0 0 Left 0
SYMATTR Value PULSE(0 5 1p 1p 1p 1.5m 3m)
SYMATTR InstName V4
SYMBOL PROM 240 160 R0
SYMATTR InstName X1
TEXT -430 516 Left 2 !.tran 10m
