Version 4
SHEET 1 880 680
WIRE 288 0 128 0
WIRE 368 0 288 0
WIRE 128 96 128 0
WIRE 176 96 128 96
WIRE 176 144 64 144
WIRE 352 144 256 144
WIRE 64 192 64 144
WIRE 352 208 352 144
WIRE 64 272 64 256
FLAG 176 192 0
FLAG 368 80 0
FLAG -48 224 0
FLAG 288 0 ON/OFF
FLAG 352 272 0
FLAG 64 272 0
FLAG -48 144 Signal
FLAG 352 144 Out
IOPIN 352 144 Out
FLAG 64 144 Signal
SYMBOL voltage 368 -16 R0
WINDOW 123 0 0 Left 0
WINDOW 39 0 0 Left 0
SYMATTR InstName V1
SYMATTR Value PULSE(0 5 1p 1p 1p 1m 2m)
SYMBOL voltage -48 128 R0
WINDOW 3 -329 119 Left 2
WINDOW 123 0 0 Left 0
WINDOW 39 0 0 Left 0
SYMATTR Value PULSE(0 5 1p 1p 1p 0.5m 1m)
SYMATTR InstName V2
SYMBOL cap 336 208 R0
SYMATTR InstName C1
SYMATTR Value 1p
SYMBOL cap 48 192 R0
SYMATTR InstName C2
SYMATTR Value 1p
SYMBOL nmos_single_switch 208 144 R0
SYMATTR InstName X1
TEXT -280 272 Left 2 !.tran 10m
