Version 4
SHEET 1 880 680
WIRE 96 -16 48 -16
WIRE -64 80 -336 80
WIRE -336 96 -336 80
WIRE 96 112 96 -16
WIRE 112 112 96 112
WIRE -64 144 -64 80
WIRE 112 144 -64 144
WIRE 336 160 240 160
WIRE 112 176 -64 176
WIRE 112 208 80 208
WIRE -64 240 -64 176
WIRE -64 240 -336 240
WIRE 80 272 80 208
FLAG 80 272 0
FLAG 48 64 0
FLAG -336 176 0
FLAG -336 320 0
FLAG 336 160 Output
IOPIN 336 160 Out
SYMBOL voltage 48 -32 R0
WINDOW 123 0 0 Left 0
WINDOW 39 0 0 Left 0
SYMATTR InstName V1
SYMATTR Value 5
SYMBOL voltage -336 80 R0
WINDOW 123 0 0 Left 0
WINDOW 39 0 0 Left 0
SYMATTR InstName V2
SYMATTR Value PULSE(0 5 1p 1p 1p 0.5m 1m)
SYMBOL voltage -336 224 R0
WINDOW 123 0 0 Left 0
WINDOW 39 0 0 Left 0
SYMATTR InstName V3
SYMATTR Value PULSE(0 5 1p 1p 1p 1m 2m)
SYMBOL NOR_2 176 160 R0
SYMATTR InstName X1
TEXT 112 408 Left 2 !.tran 10m
