Version 4
SHEET 1 880 680
WIRE 64 -48 -96 -48
WIRE 0 112 -112 112
WIRE 64 112 64 -48
WIRE 96 112 64 112
WIRE -112 128 -112 112
WIRE 0 144 0 112
WIRE 96 144 0 144
WIRE 96 176 0 176
WIRE 96 208 48 208
WIRE 0 272 0 176
WIRE 0 272 -112 272
WIRE 48 448 48 208
WIRE 48 448 -112 448
WIRE -112 464 -112 448
FLAG -112 208 0
FLAG -112 352 0
FLAG -112 544 0
FLAG -96 32 0
FLAG 96 240 0
FLAG 224 176 Output
IOPIN 224 176 Out
SYMBOL voltage -112 112 R0
WINDOW 123 0 0 Left 0
WINDOW 39 0 0 Left 0
WINDOW 3 -222 123 Left 2
SYMATTR Value PULSE(0 5 1p 1p 1p 0.5m 1m)
SYMATTR InstName V1
SYMBOL voltage -112 256 R0
WINDOW 123 0 0 Left 0
WINDOW 39 0 0 Left 0
WINDOW 3 -261 139 Left 2
SYMATTR Value PULSE(0 5 1p 1p 1p 1m 2m)
SYMATTR InstName V2
SYMBOL voltage -112 448 R0
WINDOW 123 0 0 Left 0
WINDOW 39 0 0 Left 0
WINDOW 3 -222 123 Left 2
SYMATTR Value PULSE(0 5 1p 1p 1p 1.5m 3m)
SYMATTR InstName V3
SYMBOL voltage -96 -64 R0
WINDOW 123 0 0 Left 0
WINDOW 39 0 0 Left 0
WINDOW 0 -1 -5 Left 2
SYMATTR InstName V4
SYMATTR Value 5
SYMBOL PLD 160 176 R0
SYMATTR InstName X1
TEXT 344 560 Left 2 !.tran 10m
