Version 4
SHEET 1 1620 880
WIRE 592 16 592 -16
WIRE 16 160 -16 160
WIRE 304 192 240 192
WIRE 512 192 432 192
WIRE 16 240 -16 240
WIRE 512 288 512 192
WIRE 592 288 512 288
WIRE 784 304 720 304
WIRE 992 304 912 304
WIRE 592 320 -16 320
WIRE 992 400 992 304
WIRE 1072 400 992 400
WIRE 1280 416 1200 416
WIRE 1072 432 992 432
WIRE 784 528 720 528
WIRE 992 528 992 432
WIRE 992 528 912 528
WIRE 640 768 640 704
FLAG -16 160 InA
IOPIN -16 160 In
FLAG -16 240 InB
IOPIN -16 240 In
FLAG -16 320 S
IOPIN -16 320 In
FLAG 640 768 GND
IOPIN 640 768 In
FLAG 592 -16 VDD
IOPIN 592 -16 In
FLAG 112 176 InA
FLAG 592 512 InA
FLAG 112 208 InB
FLAG 592 544 InB
FLAG 16 240 InB
FLAG 16 160 InA
FLAG 592 16 VDD
FLAG 112 144 VDD
FLAG 304 160 VDD
FLAG 592 256 VDD
FLAG 784 272 VDD
FLAG 1072 368 VDD
FLAG 784 496 VDD
FLAG 592 480 VDD
FLAG 1280 416 Out
IOPIN 1280 416 Out
FLAG 112 240 G
FLAG 304 224 G
FLAG 592 352 G
FLAG 784 336 G
FLAG 1072 464 G
FLAG 784 560 G
FLAG 592 576 G
FLAG 640 704 G
SYMBOL NAND 176 192 R0
SYMATTR InstName NAND_1
SYMBOL NOT 368 192 R0
SYMATTR InstName NOT_1
SYMBOL NOR_2 656 528 R0
SYMATTR InstName NOR_1
SYMBOL NOT 848 528 R0
SYMATTR InstName NOT_2
SYMBOL NOR_2 656 304 R0
SYMATTR InstName NOR_2
SYMBOL NOT 848 304 R0
SYMATTR InstName NOT_3
SYMBOL NAND 1136 416 R0
SYMATTR InstName NAND_2
TEXT 448 176 Left 2 ;(A.B)''
TEXT 944 552 Left 2 ;(A+B)''
TEXT 936 272 Left 2 ;(S+(A.B)'')''
