Version 4
SHEET 1 888 680
WIRE 336 48 176 48
WIRE 176 112 176 48
WIRE 208 112 176 112
WIRE 208 128 208 112
WIRE 160 160 144 160
WIRE 160 192 112 192
WIRE 112 336 112 192
WIRE 832 352 832 336
FLAG 336 128 0
FLAG 832 352 0
FLAG 144 160 OUT
IOPIN 144 160 Out
FLAG 160 224 0
FLAG 112 416 0
FLAG 832 256 V
FLAG 256 160 V
SYMBOL voltage 336 32 R0
WINDOW 123 0 0 Left 0
WINDOW 39 0 0 Left 0
SYMATTR InstName V1
SYMATTR Value PULSE(0 5 1p 1p 1p 0.5m 1m)
SYMBOL voltage 832 240 R0
WINDOW 3 -395 74 Left 2
WINDOW 123 0 0 Left 0
WINDOW 39 0 0 Left 0
SYMATTR InstName V2
SYMATTR Value PULSE(0 5 1p 1p 1p 1m 2m)
SYMBOL gate_pmos 208 176 R0
SYMATTR InstName X1
SYMBOL voltage 112 320 R0
SYMATTR InstName V3
SYMATTR Value 5
TEXT 22 296 Left 2 !.tran 10m
