Version 4
SHEET 1 1208 680
WIRE 448 -112 448 -160
WIRE 448 -112 160 -112
WIRE 688 -112 448 -112
WIRE 32 -96 -128 -96
WIRE -128 -64 -128 -96
WIRE 160 -48 160 -112
WIRE 688 -48 688 -112
WIRE -128 32 -128 16
WIRE 32 80 32 -96
WIRE 112 80 32 80
WIRE 112 112 112 80
WIRE 112 112 80 112
WIRE 160 112 160 48
WIRE 160 112 112 112
WIRE 288 112 160 112
WIRE 688 112 688 48
WIRE 688 112 384 112
WIRE 752 112 688 112
WIRE 160 224 160 112
WIRE 448 224 448 -112
WIRE 688 224 688 112
WIRE 160 384 160 320
WIRE 448 384 448 320
WIRE 448 384 160 384
WIRE 688 384 688 320
WIRE 688 384 448 384
WIRE 448 448 448 384
WIRE 688 480 656 480
WIRE 720 480 688 480
FLAG 448 -160 TOP
IOPIN 448 -160 BiDir
FLAG 448 448 BOTTOM
IOPIN 448 448 BiDir
FLAG 80 112 LEFT
IOPIN 80 112 BiDir
FLAG 752 112 RIGHT
IOPIN 752 112 BiDir
FLAG 656 480 GND
IOPIN 656 480 In
FLAG 720 480 G
FLAG -128 32 0
FLAG 688 480 0
FLAG -64 272 0
FLAG -64 192 S
FLAG 192 0 S
FLAG 1152 96 0
FLAG 1152 16 VDD
FLAG 128 -48 VDD
FLAG 288 144 VDD
FLAG 656 -48 VDD
FLAG 128 224 VDD
FLAG 416 224 VDD
FLAG 656 224 VDD
FLAG 624 224 G
FLAG 624 -48 G
FLAG 96 -48 G
FLAG 96 224 G
FLAG 384 224 G
FLAG 288 176 G
FLAG 336 80 0
FLAG 720 0 0
FLAG 720 272 0
FLAG 192 272 0
SYMBOL voltage -128 -80 R0
WINDOW 3 -368 90 Left 2
WINDOW 123 0 0 Left 0
WINDOW 39 0 0 Left 0
SYMATTR Value PULSE(0 5 1p 1p 1p 0.5m 1m)
SYMATTR InstName V1
SYMBOL voltage -64 176 R0
WINDOW 3 24 44 Left 2
WINDOW 123 0 0 Left 0
WINDOW 39 0 0 Left 0
SYMATTR Value 5
SYMATTR InstName V2
SYMBOL gate_pmos 144 0 R90
SYMATTR InstName X1
SYMBOL gate_pmos 672 0 R90
SYMATTR InstName X2
SYMBOL gate_pmos 336 128 R0
SYMATTR InstName X3
SYMBOL gate_pmos 144 272 R90
SYMATTR InstName X4
SYMBOL gate_pmos 432 272 R90
SYMATTR InstName X5
SYMBOL gate_pmos 672 272 R90
SYMATTR InstName X6
SYMBOL voltage 1152 0 R0
SYMATTR InstName V3
SYMATTR Value 5
TEXT -498 610 Left 2 !.tran 10m
