Version 4
SHEET 1 2552 3852
WIRE 128 48 -32 48
WIRE 144 48 128 48
WIRE -336 192 -384 192
WIRE -192 192 -208 192
WIRE 32 192 0 192
WIRE 176 192 160 192
WIRE 416 192 368 192
WIRE 560 192 544 192
WIRE 1056 464 1056 432
WIRE -192 480 -192 192
WIRE 688 480 -192 480
WIRE 176 512 176 192
WIRE 688 512 176 512
WIRE 992 512 816 512
WIRE 1040 512 992 512
WIRE 1184 512 1136 512
WIRE 1328 512 1184 512
WIRE 560 544 560 192
WIRE 688 544 560 544
WIRE 1056 688 1056 656
WIRE -192 704 -192 480
WIRE 688 704 -192 704
WIRE 176 736 176 512
WIRE 688 736 176 736
WIRE 1008 736 816 736
WIRE 1040 736 1008 736
WIRE 1168 736 1136 736
WIRE 1360 736 1168 736
WIRE 368 768 368 192
WIRE 688 768 368 768
WIRE 1056 912 1056 896
WIRE -192 928 -192 704
WIRE 688 928 -192 928
WIRE 0 960 0 192
WIRE 688 960 0 960
WIRE 1008 960 816 960
WIRE 1040 960 1008 960
WIRE 1168 960 1136 960
WIRE 1488 960 1168 960
WIRE 560 992 560 544
WIRE 688 992 560 992
WIRE 1056 1136 1056 1104
WIRE -192 1152 -192 928
WIRE 688 1152 -192 1152
WIRE 0 1184 0 960
WIRE 688 1184 0 1184
WIRE 992 1184 816 1184
WIRE 1040 1184 992 1184
WIRE 1168 1184 1136 1184
WIRE 1616 1184 1168 1184
WIRE 368 1216 368 768
WIRE 688 1216 368 1216
WIRE 1056 1360 1056 1312
WIRE -384 1376 -384 192
WIRE 688 1376 -384 1376
WIRE 176 1408 176 736
WIRE 688 1408 176 1408
WIRE 1008 1408 816 1408
WIRE 1040 1408 1008 1408
WIRE 1168 1408 1136 1408
WIRE 1744 1408 1168 1408
WIRE 560 1440 560 992
WIRE 688 1440 560 1440
WIRE 1056 1584 1056 1552
WIRE -384 1600 -384 1376
WIRE 688 1600 -384 1600
WIRE 176 1632 176 1408
WIRE 688 1632 176 1632
WIRE 992 1632 816 1632
WIRE 1040 1632 992 1632
WIRE 1168 1632 1136 1632
WIRE 1872 1632 1168 1632
WIRE 368 1664 368 1216
WIRE 688 1664 368 1664
WIRE 1056 1808 1056 1776
WIRE -384 1824 -384 1600
WIRE 688 1824 -384 1824
WIRE 0 1856 0 1184
WIRE 688 1856 0 1856
WIRE 992 1856 816 1856
WIRE 1040 1856 992 1856
WIRE 1168 1856 1136 1856
WIRE 2016 1856 1168 1856
WIRE 560 1888 560 1440
WIRE 688 1888 560 1888
WIRE 1056 2048 1056 2016
WIRE -384 2064 -384 1824
WIRE 688 2064 -384 2064
WIRE 0 2096 0 1856
WIRE 688 2096 0 2096
WIRE 992 2096 816 2096
WIRE 1040 2096 992 2096
WIRE 1168 2096 1136 2096
WIRE 2176 2096 1168 2096
WIRE 368 2128 368 1664
WIRE 688 2128 368 2128
WIRE -384 2176 -384 2064
WIRE -192 2176 -192 1152
WIRE 0 2176 0 2096
WIRE 176 2176 176 1632
WIRE 368 2176 368 2128
WIRE 560 2176 560 1888
WIRE 1328 2256 1328 512
WIRE 1360 2256 1360 736
WIRE 336 2368 16 2368
WIRE 1344 2448 1344 2384
WIRE 1456 2448 1344 2448
WIRE 1456 2496 1456 2448
WIRE 1488 2496 1488 960
WIRE 1472 2672 1472 2624
WIRE 1584 2672 1472 2672
WIRE 1584 2720 1584 2672
WIRE 1616 2720 1616 1184
WIRE 1600 2896 1600 2848
WIRE 1712 2896 1600 2896
WIRE 1712 2944 1712 2896
WIRE 1744 2944 1744 1408
WIRE 1728 3120 1728 3072
WIRE 1840 3120 1728 3120
WIRE 1840 3168 1840 3120
WIRE 1872 3168 1872 1632
WIRE 1856 3344 1856 3296
WIRE 1984 3344 1856 3344
WIRE 1984 3392 1984 3344
WIRE 2016 3392 2016 1856
WIRE 2000 3568 2000 3520
WIRE 2144 3568 2000 3568
WIRE 2144 3616 2144 3568
WIRE 2176 3616 2176 2096
FLAG -384 192 InA
IOPIN -384 192 In
FLAG 0 192 InB
IOPIN 0 192 In
FLAG 368 192 InC
IOPIN 368 192 In
FLAG -32 48 VDD
IOPIN -32 48 In
FLAG 128 48 VDD
FLAG 688 448 VDD
FLAG 688 672 VDD
FLAG 688 896 VDD
FLAG 688 1120 VDD
FLAG 688 1344 VDD
FLAG 688 1568 VDD
FLAG 688 1792 VDD
FLAG 688 2032 VDD
FLAG 16 2368 GND
IOPIN 16 2368 In
FLAG 336 2368 G
FLAG 688 2160 G
FLAG 688 1920 G
FLAG 688 1696 G
FLAG 688 1472 G
FLAG 688 1248 G
FLAG 688 1024 G
FLAG 688 800 G
FLAG 688 576 G
FLAG 1296 2256 G
FLAG 1424 2496 G
FLAG 1552 2720 G
FLAG 1680 2944 G
FLAG 1808 3168 G
FLAG 1952 3392 G
FLAG 2112 3616 G
FLAG 1392 2256 VDD
FLAG 1520 2496 VDD
FLAG 1648 2720 VDD
FLAG 1776 2944 VDD
FLAG 1904 3168 VDD
FLAG 2048 3392 VDD
FLAG 2208 3616 VDD
FLAG 2160 3744 OUT
IOPIN 2160 3744 Out
FLAG 1056 432 S1
IOPIN 1056 432 In
FLAG 1088 512 G
FLAG 1056 656 S2
IOPIN 1056 656 In
FLAG 1088 736 G
FLAG 1168 800 G
FLAG 1056 896 S3
IOPIN 1056 896 In
FLAG 1088 960 G
FLAG 1168 1024 G
FLAG 1056 1104 S4
IOPIN 1056 1104 In
FLAG 1088 1184 G
FLAG 1168 1248 G
FLAG 1056 1312 S5
IOPIN 1056 1312 In
FLAG 1088 1408 G
FLAG 1168 1472 G
FLAG 1056 1552 S6
IOPIN 1056 1552 In
FLAG 1088 1632 G
FLAG 1168 1696 G
FLAG 1056 1776 S7
IOPIN 1056 1776 In
FLAG 1088 1856 G
FLAG 1168 1920 G
FLAG 1056 2016 S8
IOPIN 1056 2016 In
FLAG 1088 2096 G
FLAG 1168 2160 G
FLAG 1184 576 G
FLAG -336 224 G
FLAG 32 224 G
FLAG 416 224 G
FLAG -336 160 VDD
FLAG 32 160 VDD
FLAG 416 160 VDD
FLAG 992 576 G
FLAG 1008 800 G
FLAG 1008 1024 G
FLAG 992 1248 G
FLAG 1008 1472 G
FLAG 992 1696 G
FLAG 992 1920 G
FLAG 992 2160 G
SYMBOL NOT -272 192 R0
SYMATTR InstName X1
SYMBOL NOT 96 192 R0
SYMATTR InstName X2
SYMBOL NOT 480 192 R0
SYMATTR InstName X3
SYMBOL 3_AND 752 512 R0
SYMATTR InstName AND_1
SYMBOL 3_AND 752 736 R0
SYMATTR InstName AND_2
SYMBOL 3_AND 752 960 R0
SYMATTR InstName AND_3
SYMBOL 3_AND 752 1184 R0
SYMATTR InstName AND_4
SYMBOL 3_AND 752 1408 R0
SYMATTR InstName AND_5
SYMBOL 3_AND 752 1632 R0
SYMATTR InstName AND_6
SYMBOL 3_AND 752 1856 R0
SYMATTR InstName AND_7
SYMBOL 3_AND 752 2096 R0
SYMATTR InstName AND_8
SYMBOL 2_OR 1344 2320 R90
SYMATTR InstName X4
SYMBOL 2_OR 1472 2560 R90
SYMATTR InstName X12
SYMBOL 2_OR 1600 2784 R90
SYMATTR InstName X13
SYMBOL 2_OR 1728 3008 R90
SYMATTR InstName X14
SYMBOL 2_OR 1856 3232 R90
SYMATTR InstName X15
SYMBOL 2_OR 2000 3456 R90
SYMATTR InstName X16
SYMBOL 2_OR 2160 3680 R90
SYMATTR InstName X5
SYMBOL nmos4 1136 464 R90
WINDOW 0 -69 -28 Left 2
WINDOW 3 -84 113 Left 2
SYMATTR InstName M1
SYMBOL cap 1168 512 R0
SYMATTR InstName C2
SYMATTR Value 1p
SYMBOL nmos4 1136 688 R90
WINDOW 0 -15 -19 Left 2
WINDOW 3 -40 110 Left 2
SYMATTR InstName M2
SYMBOL cap 1152 736 R0
SYMATTR InstName C4
SYMATTR Value 1p
SYMBOL nmos4 1136 912 R90
WINDOW 0 -15 -19 Left 2
WINDOW 3 -40 110 Left 2
SYMATTR InstName M3
SYMBOL cap 1152 960 R0
SYMATTR InstName C6
SYMATTR Value 1p
SYMBOL nmos4 1136 1136 R90
WINDOW 0 -15 -19 Left 2
WINDOW 3 -40 110 Left 2
SYMATTR InstName M4
SYMBOL cap 1152 1184 R0
SYMATTR InstName C8
SYMATTR Value 1p
SYMBOL nmos4 1136 1360 R90
WINDOW 0 -15 -19 Left 2
WINDOW 3 -40 110 Left 2
SYMATTR InstName M5
SYMBOL cap 1152 1408 R0
SYMATTR InstName C10
SYMATTR Value 1p
SYMBOL nmos4 1136 1584 R90
WINDOW 0 -15 -19 Left 2
WINDOW 3 -40 110 Left 2
SYMATTR InstName M6
SYMBOL cap 1152 1632 R0
SYMATTR InstName C12
SYMATTR Value 1p
SYMBOL nmos4 1136 1808 R90
WINDOW 0 -15 -19 Left 2
WINDOW 3 -40 110 Left 2
SYMATTR InstName M7
SYMBOL cap 1152 1856 R0
SYMATTR InstName C14
SYMATTR Value 1p
SYMBOL nmos4 1136 2048 R90
WINDOW 0 -15 -19 Left 2
WINDOW 3 -40 110 Left 2
SYMATTR InstName M8
SYMBOL cap 1152 2096 R0
SYMATTR InstName C16
SYMATTR Value 1p
SYMBOL cap 976 512 R0
SYMATTR InstName C1
SYMATTR Value 1p
SYMBOL cap 992 736 R0
WINDOW 0 -20 23 Left 2
SYMATTR InstName C3
SYMATTR Value 1p
SYMBOL cap 992 960 R0
WINDOW 0 -29 19 Left 2
SYMATTR InstName C5
SYMATTR Value 1p
SYMBOL cap 976 1184 R0
WINDOW 0 -29 19 Left 2
SYMATTR InstName C7
SYMATTR Value 1p
SYMBOL cap 992 1408 R0
WINDOW 0 -29 19 Left 2
SYMATTR InstName C9
SYMATTR Value 1p
SYMBOL cap 976 1632 R0
WINDOW 0 -29 19 Left 2
SYMATTR InstName C11
SYMATTR Value 1p
SYMBOL cap 976 1856 R0
WINDOW 0 -29 19 Left 2
SYMATTR InstName C13
SYMATTR Value 1p
SYMBOL cap 976 2096 R0
WINDOW 0 -29 19 Left 2
SYMATTR InstName C15
SYMATTR Value 1p
TEXT -384 368 Left 2 ;A
TEXT -192 368 Left 2 ;A'
TEXT 0 368 Left 2 ;B
TEXT 176 368 Left 2 ;B'
TEXT 368 368 Left 2 ;C
TEXT 560 368 Left 2 ;C'
TEXT 864 496 Left 2 ;A'B'C'
TEXT 872 720 Left 2 ;A'B'C
TEXT 872 944 Left 2 ;A'BC'
TEXT 880 1168 Left 2 ;A'BC
TEXT 888 1392 Left 2 ;AB'C'
TEXT 896 1616 Left 2 ;AB'C
TEXT 896 1840 Left 2 ;ABC'
TEXT -384 2176 Left 2 ;A
TEXT -192 2176 Left 2 ;A'
TEXT 0 2176 Left 2 ;B
TEXT 176 2176 Left 2 ;B'
TEXT 368 2176 Left 2 ;C
TEXT 560 2176 Left 2 ;C'
TEXT 896 2080 Left 2 ;ABC
