Version 4
SHEET 1 2552 3820
WIRE 160 48 80 48
WIRE 240 48 160 48
WIRE 256 48 240 48
WIRE -144 192 -192 192
WIRE 0 192 -16 192
WIRE 144 192 112 192
WIRE 288 192 272 192
WIRE 416 192 368 192
WIRE 560 192 544 192
WIRE -192 336 -192 192
WIRE 112 336 112 192
WIRE 368 352 368 192
WIRE 976 464 960 464
WIRE 992 464 976 464
WIRE 0 480 0 192
WIRE 688 480 0 480
WIRE 288 512 288 192
WIRE 688 512 288 512
WIRE 992 512 816 512
WIRE 1152 512 1072 512
WIRE 560 544 560 192
WIRE 688 544 560 544
WIRE 976 688 960 688
WIRE 1008 688 976 688
WIRE 0 704 0 480
WIRE 688 704 0 704
WIRE 288 736 288 512
WIRE 688 736 288 736
WIRE 1008 736 816 736
WIRE 1184 736 1088 736
WIRE 368 768 368 352
WIRE 688 768 368 768
WIRE 976 912 960 912
WIRE 1008 912 976 912
WIRE 0 928 0 704
WIRE 688 928 0 928
WIRE 112 960 112 336
WIRE 688 960 112 960
WIRE 1008 960 816 960
WIRE 1312 960 1088 960
WIRE 560 992 560 544
WIRE 688 992 560 992
WIRE 976 1136 960 1136
WIRE 1008 1136 976 1136
WIRE 0 1152 0 928
WIRE 688 1152 0 1152
WIRE 112 1184 112 960
WIRE 688 1184 112 1184
WIRE 1008 1184 816 1184
WIRE 1440 1184 1088 1184
WIRE 368 1216 368 768
WIRE 688 1216 368 1216
WIRE 992 1360 960 1360
WIRE 1008 1360 992 1360
WIRE -192 1376 -192 336
WIRE 688 1376 -192 1376
WIRE 288 1408 288 736
WIRE 688 1408 288 1408
WIRE 1008 1408 816 1408
WIRE 1568 1408 1088 1408
WIRE 560 1440 560 992
WIRE 688 1440 560 1440
WIRE 992 1584 960 1584
WIRE 1008 1584 992 1584
WIRE -192 1600 -192 1376
WIRE 688 1600 -192 1600
WIRE 288 1632 288 1408
WIRE 688 1632 288 1632
WIRE 1008 1632 816 1632
WIRE 1696 1632 1088 1632
WIRE 368 1664 368 1216
WIRE 688 1664 368 1664
WIRE 992 1808 976 1808
WIRE 1008 1808 992 1808
WIRE -192 1824 -192 1600
WIRE 688 1824 -192 1824
WIRE 112 1856 112 1184
WIRE 688 1856 112 1856
WIRE 1008 1856 816 1856
WIRE 1840 1856 1088 1856
WIRE 560 1888 560 1440
WIRE 688 1888 560 1888
WIRE 992 2048 976 2048
WIRE 1008 2048 992 2048
WIRE -192 2064 -192 1824
WIRE 688 2064 -192 2064
WIRE 112 2096 112 1856
WIRE 688 2096 112 2096
WIRE 1008 2096 816 2096
WIRE 2000 2096 1088 2096
WIRE 368 2128 368 1664
WIRE 688 2128 368 2128
WIRE -192 2176 -192 2064
WIRE 0 2176 0 1152
WIRE 112 2176 112 2096
WIRE 288 2176 288 1632
WIRE 368 2176 368 2128
WIRE 560 2176 560 1888
WIRE 1152 2224 1152 512
WIRE 1184 2224 1184 736
WIRE 224 2368 128 2368
WIRE 336 2368 224 2368
WIRE 1168 2416 1168 2352
WIRE 1280 2416 1168 2416
WIRE 1280 2464 1280 2416
WIRE 1312 2464 1312 960
WIRE 1296 2640 1296 2592
WIRE 1408 2640 1296 2640
WIRE 1408 2688 1408 2640
WIRE 1440 2688 1440 1184
WIRE 1424 2864 1424 2816
WIRE 1536 2864 1424 2864
WIRE 1536 2912 1536 2864
WIRE 1568 2912 1568 1408
WIRE 1552 3088 1552 3040
WIRE 1664 3088 1552 3088
WIRE 1664 3136 1664 3088
WIRE 1696 3136 1696 1632
WIRE 1680 3312 1680 3264
WIRE 1808 3312 1680 3312
WIRE 1808 3360 1808 3312
WIRE 1840 3360 1840 1856
WIRE 1824 3536 1824 3488
WIRE 1968 3536 1824 3536
WIRE 1968 3584 1968 3536
WIRE 2000 3584 2000 2096
FLAG -192 192 InA
IOPIN -192 192 In
FLAG 112 192 InB
IOPIN 112 192 In
FLAG 368 192 InC
IOPIN 368 192 In
FLAG 80 48 VDD
IOPIN 80 48 In
FLAG 240 48 VDD
FLAG 688 448 VDD
FLAG 688 672 VDD
FLAG 688 896 VDD
FLAG 688 1120 VDD
FLAG 688 1344 VDD
FLAG 688 1568 VDD
FLAG 688 1792 VDD
FLAG 688 2032 VDD
FLAG 128 2368 GND
IOPIN 128 2368 In
FLAG 336 2368 G
FLAG 688 2160 G
FLAG 688 1920 G
FLAG 688 1696 G
FLAG 688 1472 G
FLAG 688 1248 G
FLAG 688 1024 G
FLAG 688 800 G
FLAG 688 576 G
FLAG 1120 2224 G
FLAG 1248 2464 G
FLAG 1376 2688 G
FLAG 1504 2912 G
FLAG 1632 3136 G
FLAG 1776 3360 G
FLAG 1936 3584 G
FLAG 1216 2224 VDD
FLAG 1344 2464 VDD
FLAG 1472 2688 VDD
FLAG 1600 2912 VDD
FLAG 1728 3136 VDD
FLAG 1872 3360 VDD
FLAG 2032 3584 VDD
FLAG 1984 3712 OUT
IOPIN 1984 3712 Out
FLAG 960 464 S1
IOPIN 960 464 In
FLAG -144 224 G
FLAG 144 224 G
FLAG 416 224 G
FLAG -144 160 VDD
FLAG 144 160 VDD
FLAG 416 160 VDD
FLAG -720 768 0
FLAG -720 688 V
FLAG -720 928 0
FLAG -720 848 A
FLAG -720 1104 0
FLAG -720 1024 B
FLAG -720 1264 0
FLAG -720 1184 C
FLAG 160 48 V
FLAG 224 2368 0
FLAG 992 560 G
FLAG 960 688 S2
IOPIN 960 688 In
FLAG 1008 784 G
FLAG 960 912 S3
IOPIN 960 912 In
FLAG 1008 1008 G
FLAG 960 1136 S4
IOPIN 960 1136 In
FLAG 1008 1232 G
FLAG 960 1360 S5
IOPIN 960 1360 In
FLAG 1008 1456 G
FLAG 960 1584 S6
IOPIN 960 1584 In
FLAG 1008 1680 G
FLAG 976 1808 S7
IOPIN 976 1808 In
FLAG 1008 1904 G
FLAG 976 2048 S8
IOPIN 976 2048 In
FLAG 1008 2144 G
FLAG -192 336 V
FLAG 112 336 V
FLAG 368 352 V
FLAG 992 2048 0
FLAG 992 1808 0
FLAG 992 1584 0
FLAG 992 1360 0
FLAG 976 1136 0
FLAG 976 912 0
FLAG 976 688 0
FLAG 976 464 V
SYMBOL NOT -80 192 R0
SYMATTR InstName X1
SYMBOL NOT 208 192 R0
SYMATTR InstName X2
SYMBOL NOT 480 192 R0
SYMATTR InstName X3
SYMBOL 3_AND 752 512 R0
SYMATTR InstName AND_1
SYMBOL 3_AND 752 736 R0
SYMATTR InstName AND_2
SYMBOL 3_AND 752 960 R0
SYMATTR InstName AND_3
SYMBOL 3_AND 752 1184 R0
SYMATTR InstName AND_4
SYMBOL 3_AND 752 1408 R0
SYMATTR InstName AND_5
SYMBOL 3_AND 752 1632 R0
SYMATTR InstName AND_6
SYMBOL 3_AND 752 1856 R0
SYMATTR InstName AND_7
SYMBOL 3_AND 752 2096 R0
SYMATTR InstName AND_8
SYMBOL 2_OR 1168 2288 R90
SYMATTR InstName X4
SYMBOL 2_OR 1296 2528 R90
SYMATTR InstName X12
SYMBOL 2_OR 1424 2752 R90
SYMATTR InstName X13
SYMBOL 2_OR 1552 2976 R90
SYMATTR InstName X14
SYMBOL 2_OR 1680 3200 R90
SYMATTR InstName X15
SYMBOL 2_OR 1824 3424 R90
SYMATTR InstName X16
SYMBOL 2_OR 1984 3648 R90
SYMATTR InstName X5
SYMBOL voltage -720 672 R0
SYMATTR InstName V1
SYMATTR Value 5
SYMBOL voltage -720 832 R0
WINDOW 3 -252 128 Left 2
WINDOW 123 0 0 Left 0
WINDOW 39 0 0 Left 0
SYMATTR Value PULSE(0 5 1p 1p 1p 0.5m 1m)
SYMATTR InstName V2
SYMBOL voltage -720 1008 R0
WINDOW 3 -252 128 Left 2
WINDOW 123 0 0 Left 0
WINDOW 39 0 0 Left 0
SYMATTR Value PULSE(0 5 1p 1p 1p 1m 2m)
SYMATTR InstName V3
SYMBOL voltage -720 1168 R0
WINDOW 3 -252 128 Left 2
WINDOW 123 0 0 Left 0
WINDOW 39 0 0 Left 0
SYMATTR Value PULSE(0 5 1p 1p 1p 1.5m 3m)
SYMATTR InstName V4
SYMBOL nmos_single_switch 1024 512 R0
SYMATTR InstName X6
SYMBOL nmos_single_switch 1040 736 R0
SYMATTR InstName X7
SYMBOL nmos_single_switch 1040 960 R0
SYMATTR InstName X8
SYMBOL nmos_single_switch 1040 1184 R0
SYMATTR InstName X9
SYMBOL nmos_single_switch 1040 1408 R0
SYMATTR InstName X10
SYMBOL nmos_single_switch 1040 1632 R0
SYMATTR InstName X11
SYMBOL nmos_single_switch 1040 1856 R0
SYMATTR InstName X17
SYMBOL nmos_single_switch 1040 2096 R0
SYMATTR InstName X18
TEXT 864 496 Left 2 ;A'B'C'
TEXT 872 720 Left 2 ;A'B'C
TEXT 872 944 Left 2 ;A'BC'
TEXT 880 1168 Left 2 ;A'BC
TEXT 888 1392 Left 2 ;AB'C'
TEXT 896 1616 Left 2 ;AB'C
TEXT 896 1840 Left 2 ;ABC'
TEXT -192 2176 Left 2 ;A
TEXT 0 2176 Left 2 ;A'
TEXT 112 2176 Left 2 ;B
TEXT 288 2176 Left 2 ;B'
TEXT 368 2176 Left 2 ;C
TEXT 560 2176 Left 2 ;C'
TEXT 896 2080 Left 2 ;ABC
TEXT -976 1320 Left 2 !.tran 10m
