Version 4
SHEET 1 1020 788
WIRE 384 144 336 144
WIRE 384 176 336 176
WIRE 608 176 544 176
WIRE 384 208 336 208
WIRE 384 240 336 240
WIRE 608 288 608 256
FLAG 160 96 0
FLAG -304 176 S3
FLAG 160 128 S1
FLAG -304 256 0
FLAG -304 32 S2
FLAG -304 112 0
FLAG -304 -112 S1
FLAG -304 -32 0
FLAG 160 160 S2
FLAG 160 192 S3
FLAG 160 224 S4
FLAG 160 256 S5
FLAG 160 288 S6
FLAG -304 336 S4
FLAG -304 416 0
FLAG -304 496 S5
FLAG -304 576 0
FLAG -304 640 S6
FLAG -304 720 0
FLAG 608 288 0
FLAG 544 176 right
FLAG 384 144 left
FLAG 384 240 bottom
FLAG 384 208 right
FLAG 384 176 top
SYMBOL voltage -304 160 R0
WINDOW 123 0 0 Left 0
WINDOW 39 0 0 Left 0
SYMATTR InstName V1
SYMATTR Value PULSE(0 5 2m 1p 1p 1m 2m 1)
SYMBOL voltage -304 16 R0
WINDOW 123 0 0 Left 0
WINDOW 39 0 0 Left 0
SYMATTR InstName V3
SYMATTR Value PULSE(0 5 1m 1p 1p 1m 2m 1)
SYMBOL voltage -304 -128 R0
WINDOW 123 0 0 Left 0
WINDOW 39 0 0 Left 0
SYMATTR InstName V4
SYMATTR Value PULSE(0 5 1p 1p 1p 1m 2m 1)
SYMBOL voltage -304 320 R0
WINDOW 123 0 0 Left 0
WINDOW 39 0 0 Left 0
SYMATTR InstName V2
SYMATTR Value PULSE(0 5 3m 1p 1p 1m 2m 1)
SYMBOL voltage -304 480 R0
WINDOW 123 0 0 Left 0
WINDOW 39 0 0 Left 0
SYMATTR InstName V5
SYMATTR Value PULSE(0 5 4m 1p 1p 1m 2m 1)
SYMBOL voltage -304 624 R0
WINDOW 123 0 0 Left 0
WINDOW 39 0 0 Left 0
SYMATTR InstName V6
SYMATTR Value PULSE(0 5 5m 1p 1p 1m 2m 1)
SYMBOL voltage 608 160 R0
WINDOW 123 0 0 Left 0
WINDOW 39 0 0 Left 0
SYMATTR InstName V7
SYMATTR Value PULSE(0 5 1p 1p 1p 0.25m 0.5m)
SYMBOL switch_matrix 240 192 R0
SYMATTR InstName X2
TEXT -338 744 Left 2 !.tran 10m
