Version 4
SHEET 1 880 680
WIRE 192 -64 128 -64
WIRE 304 160 240 160
WIRE 304 240 304 160
WIRE 416 240 304 240
WIRE 672 256 544 256
WIRE 416 272 304 272
WIRE 304 368 304 272
WIRE 304 368 240 368
WIRE 192 512 144 512
FLAG 112 144 InA
IOPIN 112 144 In
FLAG 112 176 InB
IOPIN 112 176 In
FLAG 112 368 InC
IOPIN 112 368 In
FLAG 128 -64 VDD
IOPIN 128 -64 In
FLAG 192 -64 VDD
FLAG 112 112 VDD
FLAG 112 336 VDD
FLAG 416 208 VDD
FLAG 144 512 GND
IOPIN 144 512 In
FLAG 192 512 G
FLAG 112 208 G
FLAG 112 400 G
FLAG 416 304 G
FLAG 672 256 OUT
IOPIN 672 256 Out
SYMBOL NAND 176 160 R0
SYMATTR InstName NAND_1
SYMBOL NOT 176 368 R0
SYMATTR InstName NOT_1
SYMBOL NOR_2 480 256 R0
SYMATTR InstName NOR_1
