Version 4
SHEET 1 1100 1000
WIRE 304 -144 192 -144
WIRE 304 96 256 96
WIRE 304 160 304 96
WIRE 368 160 304 160
WIRE 560 176 496 176
WIRE 368 192 304 192
WIRE 304 288 304 192
WIRE 304 288 256 288
WIRE 560 352 560 176
WIRE 624 352 560 352
WIRE 864 368 752 368
WIRE 624 384 560 384
WIRE 320 480 256 480
WIRE 320 544 320 480
WIRE 368 544 320 544
WIRE 560 560 560 384
WIRE 560 560 496 560
WIRE 368 576 320 576
WIRE 320 672 320 576
WIRE 320 672 256 672
WIRE 304 928 176 928
FLAG 128 80 S1
IOPIN 128 80 In
FLAG 128 112 S2
IOPIN 128 112 In
FLAG 128 272 S3
IOPIN 128 272 In
FLAG 128 304 S4
IOPIN 128 304 In
FLAG 128 464 S5
IOPIN 128 464 In
FLAG 128 496 S6
IOPIN 128 496 In
FLAG 128 656 S7
IOPIN 128 656 In
FLAG 128 688 S8
IOPIN 128 688 In
FLAG 192 -144 VDD
IOPIN 192 -144 In
FLAG 304 -144 VDD
FLAG 128 48 VDD
FLAG 128 240 VDD
FLAG 128 432 VDD
FLAG 128 624 VDD
FLAG 176 928 GND
IOPIN 176 928 In
FLAG 304 928 G
FLAG 128 720 G
FLAG 128 528 G
FLAG 128 336 G
FLAG 128 144 G
FLAG 368 128 VDD
FLAG 368 512 VDD
FLAG 624 320 VDD
FLAG 864 336 VDD
FLAG 368 224 G
FLAG 368 608 G
FLAG 624 416 G
FLAG 864 400 G
FLAG 992 368 OUT
IOPIN 992 368 Out
SYMBOL NOR_2 192 96 R0
SYMATTR InstName NOR_1
SYMBOL NOR_2 192 288 R0
SYMATTR InstName NOR_2
SYMBOL NOR_2 192 480 R0
SYMATTR InstName NOR_3
SYMBOL NOR_2 192 672 R0
SYMATTR InstName NOR_4
SYMBOL NAND 432 176 R0
SYMATTR InstName NAND_1
SYMBOL NAND 432 560 R0
SYMATTR InstName NAND_2
SYMBOL NOR_2 688 368 R0
SYMATTR InstName NOR_5
SYMBOL NOT 928 368 R0
SYMATTR InstName NOT_1
