Version 4
SHEET 1 1036 704
WIRE 336 112 304 112
WIRE 336 144 304 144
WIRE 336 176 304 176
WIRE 336 208 304 208
FLAG 304 240 0
FLAG 144 96 S1
FLAG -160 -144 S1
FLAG -160 0 S2
FLAG -160 144 S3
FLAG -160 272 S4
FLAG -160 400 S5
FLAG -160 528 S6
FLAG 144 128 S2
FLAG 144 160 S3
FLAG 144 192 S4
FLAG 144 224 S5
FLAG 144 256 S6
FLAG 336 112 Top
FLAG 336 176 Right
FLAG 336 208 Bottom
FLAG 336 144 Left
FLAG -240 -144 0
FLAG -240 0 0
FLAG -240 144 0
FLAG -240 272 0
FLAG -240 400 0
FLAG -240 528 0
FLAG 592 -64 0
FLAG 512 -64 Top
FLAG 896 48 0
FLAG 896 240 0
FLAG 896 432 0
FLAG 896 640 0
FLAG 896 -32 Top
FLAG 896 160 Left
FLAG 896 352 Right
FLAG 896 560 Bottom
SYMBOL voltage -144 -144 R90
WINDOW 0 -32 56 VBottom 2
WINDOW 3 32 56 VTop 2
WINDOW 123 0 0 Left 0
WINDOW 39 0 0 Left 0
SYMATTR InstName V1
SYMATTR Value PULSE(0 5 1p 1p 1p 1m 2m 1)
SYMBOL voltage 496 -64 M90
WINDOW 0 -32 56 VBottom 2
WINDOW 3 32 56 VTop 2
WINDOW 123 0 0 Left 0
WINDOW 39 0 0 Left 0
SYMATTR InstName Pulse
SYMATTR Value PULSE(0 5 1p 1p 1p 0.25m 0.5m)
SYMBOL voltage -144 0 R90
WINDOW 0 -32 56 VBottom 2
WINDOW 3 32 56 VTop 2
WINDOW 123 0 0 Left 0
WINDOW 39 0 0 Left 0
SYMATTR InstName V2
SYMATTR Value PULSE(0 5 1m 1p 1p 1m 2m 1)
SYMBOL voltage -144 144 R90
WINDOW 0 -32 56 VBottom 2
WINDOW 3 32 56 VTop 2
WINDOW 123 0 0 Left 0
WINDOW 39 0 0 Left 0
SYMATTR InstName V3
SYMATTR Value PULSE(0 5 2m 1p 1p 1m 2m 1)
SYMBOL voltage -144 272 R90
WINDOW 0 -32 56 VBottom 2
WINDOW 3 32 56 VTop 2
WINDOW 123 0 0 Left 0
WINDOW 39 0 0 Left 0
SYMATTR InstName V4
SYMATTR Value PULSE(0 5 3m 1p 1p 1m 2m 1)
SYMBOL voltage -144 400 R90
WINDOW 0 -32 56 VBottom 2
WINDOW 3 32 56 VTop 2
WINDOW 123 0 0 Left 0
WINDOW 39 0 0 Left 0
SYMATTR InstName V5
SYMATTR Value PULSE(0 5 4m 1p 1p 1m 2m 1)
SYMBOL voltage -144 528 R90
WINDOW 0 -32 56 VBottom 2
WINDOW 3 32 56 VTop 2
WINDOW 123 0 0 Left 0
WINDOW 39 0 0 Left 0
SYMATTR InstName V6
SYMATTR Value PULSE(0 5 5m 1p 1p 1m 2m 1)
SYMBOL switch_mat_new 224 176 R0
SYMATTR InstName X1
SYMBOL res 880 -48 R0
SYMATTR InstName R1
SYMATTR Value 1G
SYMBOL res 880 144 R0
SYMATTR InstName R2
SYMATTR Value 1G
SYMBOL res 880 336 R0
SYMATTR InstName R3
SYMATTR Value 1G
SYMBOL res 880 544 R0
SYMATTR InstName R4
SYMATTR Value 1G
TEXT -376 592 Left 2 !.tran 10m startup
