Version 4
SHEET 1 880 680
WIRE 304 80 288 80
WIRE 288 128 288 80
WIRE 288 128 256 128
WIRE 320 160 256 160
FLAG 256 192 0
FLAG 384 80 0
FLAG -80 80 0
FLAG -80 224 0
FLAG 320 160 Output
FLAG 0 80 A
FLAG 0 224 B
FLAG 160 176 B
FLAG 160 144 A
SYMBOL nor 208 160 R0
SYMATTR InstName X1
SYMBOL voltage 16 80 R90
WINDOW 0 -32 56 VBottom 2
WINDOW 3 32 56 VTop 2
WINDOW 123 0 0 Left 0
WINDOW 39 0 0 Left 0
SYMATTR InstName V1
SYMATTR Value PULSE(0 5 1p 1p 1p 0.5m 1m)
SYMBOL voltage 16 224 R90
WINDOW 0 -32 56 VBottom 2
WINDOW 3 32 56 VTop 2
WINDOW 123 0 0 Left 0
WINDOW 39 0 0 Left 0
SYMATTR InstName V2
SYMATTR Value PULSE(0 5 1p 1p 1p 1m 2m)
SYMBOL voltage 288 80 M90
WINDOW 0 -32 56 VBottom 2
WINDOW 3 32 56 VTop 2
WINDOW 123 0 0 Left 0
WINDOW 39 0 0 Left 0
SYMATTR InstName VDD
SYMATTR Value 5
