Version 4
SHEET 1 1036 680
WIRE -192 -64 -192 -80
WIRE 448 32 400 32
WIRE 608 32 560 32
WIRE 96 48 32 48
WIRE 304 48 208 48
WIRE -160 96 -192 96
WIRE -160 176 -192 176
WIRE 608 224 608 32
WIRE 688 224 608 224
WIRE 928 240 800 240
WIRE -160 256 -192 256
WIRE 688 256 672 256
WIRE 464 320 400 320
WIRE 672 320 672 256
WIRE 672 320 576 320
WIRE -192 432 -192 416
FLAG -80 64 B
FLAG -192 176 A
IOPIN -192 176 In
FLAG -192 256 B
IOPIN -192 256 In
FLAG -80 32 A
FLAG 304 336 B
FLAG 304 304 A
FLAG -160 256 B
FLAG -160 176 A
FLAG -192 416 G
FLAG -192 -64 VDD
FLAG 400 352 G
FLAG 576 352 G
FLAG 32 80 G
FLAG 208 80 G
FLAG 400 64 G
FLAG 560 64 G
FLAG 800 272 G
FLAG 32 16 VDD
FLAG 400 288 VDD
FLAG 576 288 VDD
FLAG 208 16 VDD
FLAG 400 0 VDD
FLAG 560 0 VDD
FLAG 800 208 VDD
FLAG 928 240 OUT
IOPIN 928 240 Out
FLAG -192 -80 VDD
IOPIN -192 -80 BiDir
FLAG -192 432 GND
IOPIN -192 432 BiDir
FLAG -192 96 S
IOPIN -192 96 In
FLAG -160 96 S
FLAG 304 16 S
SYMBOL nand -32 48 R0
SYMATTR InstName NAND1
SYMBOL nand 736 240 R0
SYMATTR InstName NAND2
SYMBOL nor 352 320 R0
SYMATTR InstName NOR1
SYMBOL nor 352 32 R0
SYMATTR InstName NOR2
SYMBOL not 144 48 R0
SYMATTR InstName NOT1
SYMBOL not 512 320 R0
SYMATTR InstName NOT2
SYMBOL not 496 32 R0
SYMATTR InstName NOT3
