Version 4
SHEET 1 880 680
WIRE 288 112 288 64
WIRE 288 112 256 112
WIRE 320 144 256 144
FLAG 256 176 0
FLAG -160 16 0
FLAG 368 64 0
FLAG 320 144 Output
FLAG -160 144 0
FLAG -160 272 0
FLAG -80 16 S
FLAG 160 112 S
FLAG -80 144 A
FLAG -80 272 B
FLAG 160 176 B
FLAG 160 144 A
SYMBOL PLD 208 144 R0
SYMATTR InstName PLD
SYMBOL voltage 272 64 R270
WINDOW 0 32 56 VTop 2
WINDOW 3 -32 56 VBottom 2
WINDOW 123 0 0 Left 0
WINDOW 39 0 0 Left 0
SYMATTR InstName VDD
SYMATTR Value 5
SYMBOL voltage -64 16 M270
WINDOW 0 32 56 VTop 2
WINDOW 3 -32 56 VBottom 2
WINDOW 123 0 0 Left 0
WINDOW 39 0 0 Left 0
SYMATTR InstName S
SYMATTR Value PULSE(0 5 1p 1p 1p 2m 4m)
SYMBOL voltage -64 144 M270
WINDOW 0 32 56 VTop 2
WINDOW 3 -32 56 VBottom 2
WINDOW 123 0 0 Left 0
WINDOW 39 0 0 Left 0
SYMATTR InstName A
SYMATTR Value PULSE(0 5 1p 1p 1p 0.5m 1m)
SYMBOL voltage -64 272 M270
WINDOW 0 32 56 VTop 2
WINDOW 3 -32 56 VBottom 2
WINDOW 123 0 0 Left 0
WINDOW 39 0 0 Left 0
SYMATTR InstName B
SYMATTR Value PULSE(0 5 1p 1p 1p 1m 2m)
TEXT -296 336 Left 2 !.tran 10m
