Version 4
SHEET 1 892 680
WIRE 352 -96 48 -96
WIRE 672 -96 352 -96
WIRE 48 -16 48 -96
WIRE 352 -16 352 -96
WIRE 672 -16 672 -96
WIRE 0 0 -64 0
WIRE 304 0 240 0
WIRE 624 0 560 0
WIRE 48 144 48 80
WIRE 80 144 48 144
WIRE 240 144 240 0
WIRE 240 144 160 144
WIRE 352 144 352 80
WIRE 384 144 352 144
WIRE 560 144 560 0
WIRE 560 144 464 144
WIRE 672 144 672 80
WIRE 704 144 672 144
WIRE 48 208 48 144
WIRE 352 208 352 144
WIRE 672 208 672 144
WIRE -64 288 -64 0
WIRE 0 288 -64 288
WIRE 240 288 240 144
WIRE 304 288 240 288
WIRE 560 288 560 144
WIRE 624 288 560 288
WIRE 48 384 48 304
WIRE 192 384 192 288
WIRE 192 384 48 384
WIRE 352 384 352 304
WIRE 352 384 192 384
WIRE 512 384 512 288
WIRE 512 384 352 384
WIRE 672 384 672 304
WIRE 672 384 512 384
WIRE 848 384 848 288
WIRE 848 384 672 384
SYMBOL nmos 0 208 R0
SYMATTR InstName M1
SYMBOL nmos 304 208 R0
SYMATTR InstName M2
SYMBOL nmos 624 208 R0
SYMATTR InstName M3
SYMBOL pmos 0 80 M180
SYMATTR InstName M4
SYMBOL pmos 304 80 M180
SYMATTR InstName M5
SYMBOL pmos 624 80 M180
SYMATTR InstName M6
SYMBOL res 176 128 R90
WINDOW 0 0 56 VBottom 2
WINDOW 3 32 56 VTop 2
SYMATTR InstName R1
SYMBOL res 480 128 R90
WINDOW 0 0 56 VBottom 2
WINDOW 3 32 56 VTop 2
SYMATTR InstName R2
SYMBOL res 800 128 R90
WINDOW 0 0 56 VBottom 2
WINDOW 3 32 56 VTop 2
SYMATTR InstName R3
SYMBOL cap 176 224 R0
SYMATTR InstName C1
SYMBOL cap 496 224 R0
SYMATTR InstName C2
SYMBOL cap 832 224 R0
SYMATTR InstName C3
