Version 4
SHEET 1 880 680
WIRE 352 -176 240 -176
WIRE 240 -80 240 -176
WIRE 352 -80 352 -176
WIRE 240 32 240 0
WIRE 192 48 128 48
WIRE 128 160 128 48
WIRE 128 160 -80 160
WIRE 240 160 240 128
WIRE 336 160 240 160
WIRE 496 160 416 160
WIRE 608 160 496 160
WIRE 240 192 240 160
WIRE -80 240 -80 160
WIRE 496 240 496 160
WIRE 128 272 128 160
WIRE 192 272 128 272
WIRE -80 384 -80 320
WIRE 240 384 240 288
WIRE 496 384 496 304
FLAG -80 384 0
FLAG 352 -80 0
FLAG 240 384 0
FLAG 496 384 0
FLAG 608 160 O/P
IOPIN 608 160 Out
SYMBOL nmos 192 192 R0
SYMATTR InstName M1
SYMBOL pmos 192 128 M180
SYMATTR InstName M2
SYMBOL voltage 240 16 R180
WINDOW 0 24 96 Left 2
WINDOW 3 24 16 Left 2
WINDOW 123 0 0 Left 0
WINDOW 39 0 0 Left 0
SYMATTR InstName V1
SYMATTR Value 5
SYMBOL voltage -80 224 R0
WINDOW 123 0 0 Left 0
WINDOW 39 0 0 Left 0
WINDOW 3 -181 118 Left 2
SYMATTR InstName V2
SYMATTR Value PULSE(0 5 0 1p 1p 100n 200n 2)
SYMBOL res 432 144 R90
WINDOW 0 0 56 VBottom 2
WINDOW 3 32 56 VTop 2
SYMATTR InstName R1
SYMATTR Value 1k
SYMBOL cap 480 240 R0
SYMATTR InstName C1
SYMATTR Value 1p
TEXT -112 408 Left 2 !.tran 200n
