Version 4
SHEET 1 880 680
WIRE 176 32 176 16
WIRE 128 48 96 48
WIRE 176 64 176 32
WIRE 96 160 96 48
WIRE 96 160 -16 160
WIRE 176 160 176 128
WIRE 288 160 176 160
WIRE 176 192 176 160
WIRE 96 272 96 160
WIRE 128 272 96 272
WIRE 176 288 176 256
FLAG 176 16 VDD
IOPIN 176 16 BiDir
FLAG -16 160 IN
IOPIN -16 160 In
FLAG 288 160 NOT
IOPIN 288 160 Out
FLAG 176 288 GND
IOPIN 176 288 BiDir
SYMBOL pmos 128 128 M180
SYMATTR InstName M1
SYMBOL nmos 128 192 R0
SYMATTR InstName M2
TEXT -48 336 Left 2 !.tran 2m
