Version 4
SHEET 1 880 680
WIRE 272 176 192 176
WIRE 64 528 64 480
FLAG -176 -32 0
FLAG -176 -112 V
FLAG 64 -16 V
FLAG -176 128 0
FLAG -176 48 A
FLAG -176 304 0
FLAG -176 224 B
FLAG -176 464 0
FLAG -176 384 C
FLAG 272 176 OUT
IOPIN 272 176 Out
FLAG 64 16 A
FLAG 64 48 B
FLAG 64 80 C
FLAG 64 112 V
FLAG 64 528 0
FLAG 64 480 G
FLAG 64 368 G
FLAG 64 336 G
FLAG 64 304 G
FLAG 64 272 G
FLAG 64 240 G
FLAG 64 208 G
FLAG 64 176 G
FLAG 64 144 G
SYMBOL voltage -176 -128 R0
WINDOW 3 34 100 Left 2
WINDOW 123 0 0 Left 0
WINDOW 39 0 0 Left 0
SYMATTR Value 5
SYMATTR InstName VDD
SYMBOL voltage -176 32 R0
WINDOW 3 -252 128 Left 2
WINDOW 123 0 0 Left 0
WINDOW 39 0 0 Left 0
SYMATTR Value PULSE(0 5 1p 1p 1p 0.5m 1m)
SYMATTR InstName A
SYMBOL voltage -176 208 R0
WINDOW 3 -252 128 Left 2
WINDOW 123 0 0 Left 0
WINDOW 39 0 0 Left 0
SYMATTR Value PULSE(0 5 1p 1p 1p 1m 2m)
SYMATTR InstName B
SYMBOL voltage -176 368 R0
WINDOW 3 -252 128 Left 2
WINDOW 123 0 0 Left 0
WINDOW 39 0 0 Left 0
SYMATTR Value PULSE(0 5 1p 1p 1p 1.5m 3m)
SYMATTR InstName C
SYMBOL PROM 128 176 R0
SYMATTR InstName PROM
TEXT -432 520 Left 2 !.tran 10m startup
