Version 4
SHEET 1 924 680
WIRE 192 160 64 160
WIRE 336 160 288 160
FLAG -16 -32 S
FLAG -16 48 0
FLAG 864 -32 0
FLAG 864 -112 VDD
FLAG 240 240 S
FLAG 192 128 VDD
FLAG 192 192 0
FLAG -240 272 0
FLAG -240 192 sig
FLAG 64 160 OUT
FLAG 336 160 sig
SYMBOL passgate 240 160 R0
SYMATTR InstName X1
SYMBOL voltage -16 -48 R0
WINDOW 3 -191 130 Left 2
WINDOW 123 0 0 Left 0
WINDOW 39 0 0 Left 0
SYMATTR InstName V1
SYMATTR Value PULSE(0 5 1p 1p 1p 1m 2m)
SYMBOL voltage 864 -128 R0
WINDOW 123 0 0 Left 0
WINDOW 39 0 0 Left 0
SYMATTR InstName V3
SYMATTR Value 5
SYMBOL voltage -240 176 R0
WINDOW 3 -191 130 Left 2
WINDOW 123 0 0 Left 0
WINDOW 39 0 0 Left 0
SYMATTR InstName V4
SYMATTR Value PULSE(0 5 1p 1p 1p 0.25m 0.5m)
TEXT -208 342 Left 2 !.tran 10m startup
