Version 4
SHEET 1 880 680
WIRE 192 -32 112 -32
WIRE 192 16 112 16
WIRE 128 192 128 144
WIRE 128 192 48 192
WIRE 224 192 224 144
WIRE 304 192 224 192
WIRE 128 224 128 192
WIRE 224 224 224 192
WIRE 208 416 208 272
WIRE 208 416 160 416
WIRE 192 592 112 592
FLAG 112 -32 S
IOPIN 112 -32 In
FLAG 192 -32 S
FLAG 144 96 S
FLAG 48 416 S
FLAG 112 16 VDD
IOPIN 112 16 In
FLAG 192 16 VDD
FLAG 160 384 VDD
FLAG 112 592 GND
IOPIN 112 592 In
FLAG 192 592 G
FLAG 160 448 G
FLAG 176 144 G
FLAG 176 224 VDD
FLAG 48 192 A
IOPIN 48 192 BiDir
FLAG 304 192 B
IOPIN 304 192 BiDir
SYMBOL pmos4 128 272 R270
WINDOW 0 4 -15 Left 2
WINDOW 3 -13 140 Left 2
SYMATTR InstName M1
SYMBOL nmos4 224 96 R90
WINDOW 0 3 -28 Left 2
WINDOW 3 2 130 Left 2
SYMATTR InstName M2
SYMBOL not 96 416 R0
SYMATTR InstName NOT_1
