Version 4
SHEET 1 880 752
WIRE 224 -64 224 -112
WIRE 224 -64 -96 -64
WIRE 544 -64 224 -64
WIRE -96 0 -96 -64
WIRE -80 0 -96 0
WIRE 224 16 224 -64
WIRE 352 16 224 16
WIRE -96 32 -96 0
WIRE 544 32 544 -64
WIRE -144 112 -288 112
WIRE 160 112 160 48
WIRE 768 112 592 112
WIRE 112 160 32 160
WIRE 144 160 112 160
WIRE 400 160 240 160
WIRE 112 176 112 160
WIRE -96 240 -96 128
WIRE 32 240 32 160
WIRE 32 240 -96 240
WIRE 400 240 400 160
WIRE 544 240 544 128
WIRE 544 240 400 240
WIRE -96 272 -96 240
WIRE -96 272 -192 272
WIRE 544 272 544 240
WIRE 640 272 544 272
WIRE 352 320 352 16
WIRE 352 320 240 320
WIRE 544 320 544 272
WIRE 544 320 528 320
WIRE -96 352 -96 272
WIRE 240 352 240 320
WIRE 544 352 544 320
WIRE -144 432 -288 432
WIRE 400 432 288 432
WIRE 768 432 592 432
WIRE -96 496 -96 448
WIRE -80 496 -96 496
WIRE -96 560 -96 496
WIRE 240 560 240 448
WIRE 240 560 -96 560
WIRE 544 560 544 448
WIRE 544 560 240 560
WIRE 240 592 240 560
WIRE 592 624 560 624
FLAG -288 112 S1
IOPIN -288 112 In
FLAG -288 432 S4
IOPIN -288 432 In
FLAG 768 112 S2
IOPIN 768 112 In
FLAG 768 432 S3
IOPIN 768 432 In
FLAG 400 432 S6
IOPIN 400 432 In
FLAG 160 48 S5
IOPIN 160 48 In
FLAG 592 624 GND
IOPIN 592 624 BiDir
FLAG 640 272 RIGHT
IOPIN 640 272 BiDir
FLAG -192 272 LEFT
IOPIN -192 272 BiDir
FLAG 224 -112 TOP
IOPIN 224 -112 BiDir
FLAG 240 592 BOTTOM
IOPIN 240 592 BiDir
FLAG 560 624 G
FLAG 240 400 G
FLAG -96 400 G
FLAG -96 80 G
FLAG 192 160 G
FLAG 544 80 G
FLAG 544 400 G
FLAG -16 496 G
FLAG -16 0 G
FLAG 464 320 G
FLAG 112 240 G
SYMBOL nmos4 -144 32 R0
WINDOW 0 -43 31 Left 2
WINDOW 3 -79 66 Left 2
SYMATTR InstName M1
SYMBOL nmos4 592 32 M0
WINDOW 0 -46 32 Left 2
WINDOW 3 -80 66 Left 2
SYMATTR InstName M2
SYMBOL nmos4 592 352 M0
WINDOW 0 -44 28 Left 2
WINDOW 3 -80 58 Left 2
SYMATTR InstName M3
SYMBOL nmos4 -144 352 R0
WINDOW 0 -41 22 Left 2
WINDOW 3 -75 61 Left 2
SYMATTR InstName M4
SYMBOL nmos4 240 112 R90
WINDOW 0 -44 9 Left 2
WINDOW 3 -81 42 Left 2
SYMATTR InstName M5
SYMBOL nmos4 288 352 M0
WINDOW 0 -44 29 Left 2
WINDOW 3 -79 64 Left 2
SYMATTR InstName M6
SYMBOL cap -16 -16 R90
WINDOW 0 0 32 VBottom 2
WINDOW 3 32 32 VTop 2
SYMATTR InstName C1
SYMATTR Value 1p
SYMBOL cap 528 304 R90
WINDOW 0 0 32 VBottom 2
WINDOW 3 32 32 VTop 2
SYMATTR InstName C3
SYMATTR Value 1p
SYMBOL cap 128 240 R180
WINDOW 0 24 56 Left 2
WINDOW 3 24 8 Left 2
SYMATTR InstName C10
SYMATTR Value 1p
SYMBOL cap -80 512 R270
WINDOW 0 32 32 VTop 2
WINDOW 3 0 32 VBottom 2
SYMATTR InstName C12
SYMATTR Value 1p
