Version 4
SHEET 1 880 704
WIRE 336 112 304 112
WIRE 416 144 304 144
WIRE 576 144 416 144
WIRE 336 176 304 176
WIRE 336 208 304 208
FLAG 304 240 0
FLAG 144 96 S1
FLAG -160 -144 S1
FLAG -160 0 S2
FLAG -160 144 S3
FLAG -160 272 S4
FLAG -160 400 S5
FLAG -160 528 S6
FLAG 144 128 S2
FLAG 144 160 S3
FLAG 144 192 S4
FLAG 144 224 S5
FLAG 144 256 S6
FLAG 336 112 Top
FLAG 336 176 Right
FLAG 336 208 Bottom
FLAG 416 144 Left
FLAG -240 -144 0
FLAG -240 0 0
FLAG -240 144 0
FLAG -240 272 0
FLAG -240 400 0
FLAG -240 528 0
FLAG 656 144 0
SYMBOL switch_mat 224 176 R0
SYMATTR InstName X1
SYMBOL voltage -144 -144 R90
WINDOW 0 -32 56 VBottom 2
WINDOW 3 32 56 VTop 2
WINDOW 123 0 0 Left 0
WINDOW 39 0 0 Left 0
SYMATTR InstName V1
SYMATTR Value PULSE(0 5 1p 1p 1p 1m 2m 1)
SYMBOL voltage 560 144 M90
WINDOW 0 -32 56 VBottom 2
WINDOW 3 32 56 VTop 2
WINDOW 123 0 0 Left 0
WINDOW 39 0 0 Left 0
SYMATTR InstName Pulse
SYMATTR Value PULSE(0 5 1p 1p 1p 0.25m 0.5m)
SYMBOL voltage -144 0 R90
WINDOW 0 -32 56 VBottom 2
WINDOW 3 32 56 VTop 2
WINDOW 123 0 0 Left 0
WINDOW 39 0 0 Left 0
SYMATTR InstName V2
SYMATTR Value PULSE(0 5 1m 1p 1p 1m 2m 1)
SYMBOL voltage -144 144 R90
WINDOW 0 -32 56 VBottom 2
WINDOW 3 32 56 VTop 2
WINDOW 123 0 0 Left 0
WINDOW 39 0 0 Left 0
SYMATTR InstName V3
SYMATTR Value PULSE(0 5 2m 1p 1p 1m 2m 1)
SYMBOL voltage -144 272 R90
WINDOW 0 -32 56 VBottom 2
WINDOW 3 32 56 VTop 2
WINDOW 123 0 0 Left 0
WINDOW 39 0 0 Left 0
SYMATTR InstName V4
SYMATTR Value PULSE(0 5 3m 1p 1p 1m 2m 1)
SYMBOL voltage -144 400 R90
WINDOW 0 -32 56 VBottom 2
WINDOW 3 32 56 VTop 2
WINDOW 123 0 0 Left 0
WINDOW 39 0 0 Left 0
SYMATTR InstName V5
SYMATTR Value PULSE(0 5 4m 1p 1p 1m 2m 1)
SYMBOL voltage -144 528 R90
WINDOW 0 -32 56 VBottom 2
WINDOW 3 32 56 VTop 2
WINDOW 123 0 0 Left 0
WINDOW 39 0 0 Left 0
SYMATTR InstName V6
SYMATTR Value PULSE(0 5 5m 1p 1p 1m 2m 1)
TEXT -378 594 Left 2 !.tran 10m
