Version 4
SHEET 1 880 680
WIRE 304 -352 80 -352
WIRE 80 -32 80 -352
WIRE 144 -32 80 -32
WIRE 320 16 304 16
WIRE 336 16 320 16
WIRE 320 48 304 48
WIRE 416 48 320 48
WIRE 576 48 416 48
WIRE 320 80 304 80
WIRE 336 80 320 80
WIRE 320 112 304 112
WIRE 336 112 320 112
FLAG 144 192 0
FLAG 144 0 S1
FLAG -160 -240 S1
FLAG -160 -96 S2
FLAG -160 48 S3
FLAG -160 176 S4
FLAG -160 304 S5
FLAG -160 432 S6
FLAG 144 32 S2
FLAG 144 64 S3
FLAG 144 96 S4
FLAG 144 128 S5
FLAG 144 160 S6
FLAG 336 16 Top
FLAG 336 80 Right
FLAG 336 112 Bottom
FLAG 416 48 Left
FLAG -240 -240 0
FLAG -240 -96 0
FLAG -240 48 0
FLAG -240 176 0
FLAG -240 304 0
FLAG -240 432 0
FLAG 656 48 0
FLAG 304 -272 0
SYMBOL voltage -144 -240 R90
WINDOW 0 -32 56 VBottom 2
WINDOW 3 32 56 VTop 2
WINDOW 123 0 0 Left 0
WINDOW 39 0 0 Left 0
SYMATTR InstName V1
SYMATTR Value PULSE(0 5 1p 1p 1p 1m 2m 1)
SYMBOL voltage 560 48 M90
WINDOW 0 -32 56 VBottom 2
WINDOW 3 32 56 VTop 2
WINDOW 123 0 0 Left 0
WINDOW 39 0 0 Left 0
SYMATTR InstName Pulse1
SYMATTR Value PULSE(0 5 1p 1p 1p 0.25m 0.5m)
SYMBOL voltage -144 -96 R90
WINDOW 0 -32 56 VBottom 2
WINDOW 3 32 56 VTop 2
WINDOW 123 0 0 Left 0
WINDOW 39 0 0 Left 0
SYMATTR InstName V2
SYMATTR Value PULSE(0 5 1m 1p 1p 1m 2m 1)
SYMBOL voltage -144 48 R90
WINDOW 0 -32 56 VBottom 2
WINDOW 3 32 56 VTop 2
WINDOW 123 0 0 Left 0
WINDOW 39 0 0 Left 0
SYMATTR InstName V3
SYMATTR Value PULSE(0 5 2m 1p 1p 1m 2m 1)
SYMBOL voltage -144 176 R90
WINDOW 0 -32 56 VBottom 2
WINDOW 3 32 56 VTop 2
WINDOW 123 0 0 Left 0
WINDOW 39 0 0 Left 0
SYMATTR InstName V4
SYMATTR Value PULSE(0 5 3m 1p 1p 1m 2m 1)
SYMBOL voltage -144 304 R90
WINDOW 0 -32 56 VBottom 2
WINDOW 3 32 56 VTop 2
WINDOW 123 0 0 Left 0
WINDOW 39 0 0 Left 0
SYMATTR InstName V5
SYMATTR Value PULSE(0 5 4m 1p 1p 1m 2m 1)
SYMBOL voltage -144 432 R90
WINDOW 0 -32 56 VBottom 2
WINDOW 3 32 56 VTop 2
WINDOW 123 0 0 Left 0
WINDOW 39 0 0 Left 0
SYMATTR InstName V6
SYMATTR Value PULSE(0 5 5m 1p 1p 1m 2m 1)
SYMBOL switch_with_passgate 224 80 R0
SYMATTR InstName X1
SYMBOL voltage 304 -368 R0
SYMATTR InstName V7
SYMATTR Value 5
TEXT -376 496 Left 2 !.tran 10m
