Version 4
SHEET 1 984 680
WIRE 896 -288 784 -288
WIRE 320 -144 320 -192
WIRE 320 -144 0 -144
WIRE 640 -144 320 -144
WIRE 320 -64 320 -144
WIRE 448 -64 320 -64
WIRE 0 -48 0 -144
WIRE 640 -48 640 -144
WIRE -80 0 -208 0
WIRE 864 0 720 0
WIRE 240 80 128 80
WIRE 496 80 336 80
WIRE 0 160 0 48
WIRE 128 160 128 80
WIRE 128 160 0 160
WIRE 496 160 496 80
WIRE 640 160 640 48
WIRE 640 160 496 160
WIRE 0 192 0 160
WIRE 0 192 -96 192
WIRE 640 192 640 160
WIRE 736 192 640 192
WIRE 448 240 448 -64
WIRE 448 240 336 240
WIRE 0 272 0 192
WIRE 336 272 336 240
WIRE 640 272 640 192
WIRE -80 320 -224 320
WIRE 480 320 416 320
WIRE 880 320 720 320
WIRE 0 480 0 368
WIRE 336 480 336 368
WIRE 336 480 0 480
WIRE 640 480 640 368
WIRE 640 480 336 480
WIRE 336 512 336 480
WIRE 688 544 656 544
FLAG -208 0 S1
IOPIN -208 0 In
FLAG -224 320 S4
IOPIN -224 320 In
FLAG 864 0 S2
IOPIN 864 0 In
FLAG 880 320 S3
IOPIN 880 320 In
FLAG 480 320 S6
IOPIN 480 320 In
FLAG 288 160 S5
IOPIN 288 160 In
FLAG 688 544 GND
IOPIN 688 544 In
FLAG 736 192 RIGHT
IOPIN 736 192 BiDir
FLAG -96 192 LEFT
IOPIN -96 192 BiDir
FLAG 320 -192 TOP
IOPIN 320 -192 BiDir
FLAG 336 512 BOTTOM
IOPIN 336 512 BiDir
FLAG 656 544 G
FLAG 784 -288 VDD
IOPIN 784 -288 In
FLAG 896 -288 VDD
FLAG -32 -48 G
FLAG 240 112 G
FLAG 672 48 G
FLAG 672 368 G
FLAG 368 368 G
FLAG -32 272 G
FLAG 32 -48 VDD
FLAG 240 48 VDD
FLAG 608 48 VDD
FLAG 608 368 VDD
FLAG 304 368 VDD
FLAG 32 272 VDD
SYMBOL passgate 0 0 R90
SYMATTR InstName X1
SYMBOL passgate 288 80 R0
SYMATTR InstName X2
SYMBOL passgate 0 320 R90
SYMATTR InstName X3
SYMBOL passgate 336 320 R270
SYMATTR InstName X4
SYMBOL passgate 640 320 R270
SYMATTR InstName X5
SYMBOL passgate 640 0 R270
SYMATTR InstName X6
